%chk=\\mdstor\ua25450\oneqbit\solution-entropy\benchmarks\benzene\calc.chk
# hf/3-21g geom=connectivity

Title Card Required

0 1
 C                 -1.14901256   -0.36804308    0.00000000
 C                  0.24614744   -0.36804308    0.00000000
 C                  0.94368544    0.83970792    0.00000000
 C                  0.24603144    2.04821692   -0.00119900
 C                 -1.14879356    2.04813892   -0.00167800
 C                 -1.84639456    0.83993292   -0.00068200
 H                 -1.69877156   -1.32036008    0.00045000
 H                  0.79565544   -1.32055608    0.00131500
 H                  2.04336544    0.83978792    0.00063400
 H                  0.79623144    3.00035992   -0.00125800
 H                 -1.69891556    3.00041992   -0.00263100
 H                 -2.94599856    0.84011592   -0.00086200

 1 2 1.5 6 1.5 7 1.0
 2 3 1.5 8 1.0
 3 4 1.5 9 1.0
 4 5 1.5 10 1.0
 5 6 1.5 11 1.0
 6 12 1.0
 7
 8
 9
 10
 11
 12

