     9
        -11.39187477
C          -3.65049312112763    0.21627945433353    0.01707995063445
H          -3.29739817631389   -0.81113114571238    0.01787909020526
H          -3.29506418041833    0.71877661521931   -0.87808765913109
H          -4.73684497454961    0.20686971861036    0.01779199675816
C          -3.14232863844014    0.93493951433468    1.25701829138817
H          -2.04219600628482    0.94730698312121    1.25699712395523
H          -3.49712226812624    1.97636475555964    1.25683236493505
O          -3.62415217931143    0.25390041663591    2.39713836412105
H          -3.30946925542792    0.69892447789772    3.19001882713371
