     7
        -10.35510772
C          -0.78219599879681   -0.81381285208246    0.55556018751983
H          -0.42009151646018   -1.83632595745656    0.55570158190770
H          -0.44260646271289   -0.30140341598066    1.45437920417788
H          -1.87086733743492   -0.80748888601440    0.57890006453622
C          -0.31341769022904   -0.05399569285837   -0.64876658029745
H           0.31889407234180   -0.63997153100254   -1.34521041808619
O          -0.57577023670796    1.09179837539502   -0.87997605975801
