%chk=calc.chk 
%nprocshared=10 
%mem=16GB 
# opt=loose freq wb97xd/6-31g(d) 5d scf=(maxconventionalcycles=100,xqc) units=au 

comment

0 1
C -6.9893970910 0.6053331176 0.0655070296
H -6.6672357304 -1.4323248870 0.1473697718
H -9.0295038479 0.9240129781 0.0704302806
C -5.8473102407 1.8368588335 2.4151129834
H -3.8008551187 1.4925084189 2.4648985731
H -6.1566067070 3.8802611975 2.3738375254
O -6.9736644443 0.9902464707 4.6834310320
H -6.7638352187 -0.8114255577 4.7858707529
C -5.8377352895 1.6597892725 -2.3599968495
H -3.7965213533 1.3590712003 -2.3255861010
H -6.1679284183 3.6953530528 -2.4412400026
C -6.9542480869 0.4073278447 -4.7007499981
H -8.9849801468 0.7119820448 -4.7809949989
H -6.1117741078 1.1865341294 -6.4037833056
H -6.6044030577 -1.6170135120 -4.6695762633

