%chk=calc.chk 
%nprocshared=10 
%mem=16GB 
# opt=loose freq wb97xd/6-31g(d) 5d scf=(maxconventionalcycles=100,xqc) units=au 

comment

0 1
C -6.2165190480 -0.0141431857 0.9758086584
H -4.7615501445 -0.7651908276 2.2272441800
H -7.5323264425 -1.5379817913 0.5204808194
C -7.6577588434 2.0483569393 2.3839147438
H -8.3030571625 1.3148948098 4.2139109935
H -6.4028726617 3.6644240736 2.7269451722
O -9.7620685287 2.8158476028 0.9176296721
H -10.6418759617 4.1257877915 1.8103992834
C -5.0071200918 0.9682958719 -1.4533583679
H -3.6695891629 2.4685447961 -0.9833277929
H -6.4807941368 1.7876060662 -2.6452082471
C -3.6407047220 -1.1209961626 -2.8863863788
H -4.9510911151 -2.6181415573 -3.4017694421
H -2.7917128031 -0.3802788459 -4.6032335349
H -2.1553020493 -1.9338675566 -1.7224274501

