%chk=calc.chk 
%nprocshared=10 
%mem=16GB 
# opt=loose freq wb97xd/6-31g(d) 5d scf=(maxconventionalcycles=100,xqc) units=au 

comment

0 1
C -7.7640071568 1.3523487338 -0.1449800614
H -8.8145681380 -0.4045923037 0.1238075996
H -8.9765815666 2.6745296754 -1.1606163195
C -7.1766278302 2.4898221596 2.4486442769
H -5.9771484784 4.1680285159 2.2219456588
H -8.9305513757 3.0645280682 3.3778492844
O -6.0252917299 0.7660347362 4.1315325899
H -4.4402290192 0.2400484215 3.4152107087
C -5.3901358540 0.8384038162 -1.7084024447
H -4.1953534523 -0.5356897571 -0.7372284624
H -4.3157054759 2.5904223232 -1.9049650432
C -6.0451455411 -0.1796127278 -4.3217523749
H -4.3359174586 -0.5491300554 -5.3986702486
H -7.1074832282 -1.9317743045 -4.1659799410
H -7.1873593370 1.1782927286 -5.3575748186

