%chk=\\mdstor\ua25450\oneqbit\solution-entropy\benchmarks\acetonitrile\calc.chk
# hf/3-21g geom=connectivity

Title Card Required

0 1
 C                 -0.79758187   -0.81680611    0.58223789
 H                 -0.44092744   -1.82561611    0.58223789
 H                 -0.44090903   -0.31240792    1.45588939
 H                 -1.86758187   -0.81679293    0.58223789
 C                 -0.28423965   -0.09084984   -0.67516708
 N                  0.10243371    0.45597436   -1.62230329

 1 2 1.0 3 1.0 4 1.0 5 1.0
 2
 3
 4
 5 6 3.0
 6

