%chk=\\mdstor\ua25450\oneqbit\solution-entropy\benchmarks\toluene\calc.chk
# hf/3-21g geom=connectivity

Title Card Required

0 1
 C                  2.45944115    0.54774006    0.02502696
 C                  3.85460115    0.54774006    0.02502696
 C                  4.55213915    1.75549106    0.02502696
 C                  3.85448515    2.96400006    0.02382796
 C                  2.45966015    2.96392206    0.02334896
 C                  1.76205915    1.75571606    0.02434496
 H                  1.90968215   -0.40457694    0.02547696
 H                  4.40410915   -0.40477294    0.02634196
 H                  5.65181915    1.75557106    0.02566096
 H                  4.40468515    3.91614306    0.02376896
 H                  1.90953815    3.91620306    0.02239596
 C                  0.22205919    1.75597236    0.02409287
 H                 -0.13454663    2.62451564    0.53728372
 H                 -0.13444032    1.76627634   -0.98471927
 H                 -0.13483501    0.87730312    0.51953903

 1 2 1.5 6 1.5 7 1.0
 2 3 1.5 8 1.0
 3 4 1.5 9 1.0
 4 5 1.5 10 1.0
 5 6 1.5 11 1.0
 6 12 1.0
 7
 8
 9
 10
 11
 12 13 1.0 14 1.0 15 1.0
 13
 14
 15

