     9
        -11.38853549
C          -0.18298854377494   -1.19181168352494    0.96951518958428
H           0.21802269780409   -2.20050157810263    1.04262429384498
H           0.17762761154099   -0.72130558990347    0.04575567408386
H          -1.27910185996032   -1.23625070731137    0.93462153430881
O           0.26361373920691   -0.49643299498072    2.10379321851938
C          -0.18105125467342    0.83415077973083    2.13856103681695
H          -1.27704693905502    0.88826426724991    2.16118941140779
H           0.22203848997404    1.27546823476014    3.04763141596262
H           0.17903485893765    1.39779840208225    1.26817917547134
