     6
         -6.27125633
C          -0.00000000000000   -0.00000000074440    0.65821791484663
H           0.00000000000000    0.91407205158354    1.22907678168443
H           0.00000000000000   -0.91407205196208    1.22907678272319
C           0.00000000000000    0.00000000074440   -0.65821791483925
H          -0.00000000000000   -0.91407205156904   -1.22907678168812
H          -0.00000000000000    0.91407205194758   -1.22907678272688
