    60
       -128.45508786
C           2.23416551264900   -0.28091603387492   -0.02734868101774
C           3.67781691539418   -0.28087715077088   -0.02740644317460
C           4.37227717533726    0.92202188609061   -0.02739599560757
C           3.65042331099428    2.17225834612906   -0.02730086501334
C           2.26143628394776    2.17223052634986   -0.02724616277666
C           1.53964901642980    0.92195098198356   -0.02728985777960
C           1.78804315572449   -1.37201581166682   -0.86078558001442
C           2.95598764869999   -2.04630990931854   -1.37594406127165
C           4.12393361566944   -1.37195494949219   -0.86087273083651
C           5.24761479700430   -1.21879155313948   -1.66282091692238
C           5.54019173837105    1.08121616338282   -0.86092468750861
C           4.37219412144112    3.10412665621667   -0.86087952372677
C           3.67765529180505    4.00067152661774   -1.66280298135771
C           2.23399438416596    4.00064016474348   -1.66275399672069
C           1.53955695738434    3.10406059686380   -0.86077780445749
C           0.37161188433599    2.42970752822710   -1.37587373105626
C           0.37166198637938    1.08108367015845   -0.86073568209945
C          -0.05755125716768    0.03132567613425   -1.66264159899706
C           0.66430346102665   -1.21890734758942   -1.66265864632164
C           2.95595395016141   -2.54195424490538   -2.67347357011345
C           1.78797315211943   -2.38281026553324   -3.50693065503105
C           0.66427151525854   -1.73406164517023   -3.01127646702001
C          -0.05761053122720   -0.80221280252976   -3.84475894328761
C          -0.50372256493865    0.28884984593091   -3.01125509995767
C          -0.50377756722650    1.58638660167584   -3.50688179092533
C          -0.05765921273584    2.67747519799605   -2.67341056117804
C           0.66411341559955    3.60936118893168   -3.50694347620054
C           1.78782290185083    4.25816606164975   -3.01137163258571
C           5.54013680358113    2.42983818999303   -1.37606084125457
C           4.12364544746406    3.24742639889464   -5.65759621592800
C           5.24738934969184    3.09432121889779   -4.85572583619535
C           5.96924227939597    1.84408690829185   -4.85574372216162
C           5.54002849785184    0.79432759213316   -5.65764754465775
C           4.37204503429519    0.95345988449949   -6.49110131340903
C           2.23387344729876    2.15628641594817   -6.49096640947079
C           1.78775602026405    3.24736831550379   -5.65751173298606
C           2.95570131785692    3.92172401686627   -5.14244054275658
C           2.95573636122118    4.41736926097517   -3.84491104585871
C           4.12371733612486    4.25822469172857   -3.01145333864393
C           5.24742241851093    3.60947694439950   -3.50710654027031
C           6.41541397572081    1.58656220144047   -3.50712960192186
C           6.41546985505720    0.28902573614143   -3.01150389043944
C           5.96935066332674   -0.80206177860994   -3.84497465640637
C           5.54007766582937   -0.55429301004779   -5.14251000277698
C           4.37213211908112   -1.22864677055641   -5.65760678686474
C           3.65025309869553   -0.29681869866358   -6.49113865536387
C           2.26126697207563   -0.29684823419465   -6.49109120396870
C           1.53941146064469    0.95338946822509   -6.49099768165963
C           0.66407435332498    3.09420557755082   -4.85556188437466
C          -0.05771572024818    1.84393515345606   -4.85553030168139
C           0.37149619561489    0.79419638862703   -5.65746144473153
C           0.37155207766003   -0.55442381064787   -5.14232390198276
C           1.53949759199278   -1.22871504800050   -5.65750701645343
C           2.23403623571850   -2.12525742131286   -4.85558285588077
C           3.67769561549347   -2.12522548453620   -4.85562999569629
C           4.12386672306565   -2.38275101901060   -3.50701296550349
C           5.24757556575628   -1.73394795445695   -3.01144088990411
C           5.96930274769757    2.67762863106962   -2.67362439959371
C           5.96940702917514    0.03147740094345   -1.66285387016842
C           3.67752300230714    2.15632512936118   -6.49102276807558
