    12
        -14.55638850
C          -3.63631770185730    0.23607006221036    0.00825711503106
H          -3.28835454948909   -0.79757336319885    0.03195456085958
H          -4.72683362641394    0.21896033588648    0.03147735872158
C          -3.14020095043631    0.93864040189655    1.26728556841302
H          -2.03995476528984    0.95247440676359    1.27546715249462
H          -3.49515056817677    1.98015598574856    1.27544477159695
O          -3.63265538278316    0.24137223441995    2.39236092451929
H          -3.32493359284143    0.67674345132373    3.19349757952335
C          -3.14650726398509    0.92865093948308   -1.25537537884495
H          -2.05918975922079    0.93900809280937   -1.29018215518299
H          -3.51348759645851    0.40910852947761   -2.13660674158002
H          -3.49965270304778    1.95706003317957   -1.29053190555150
