%chk=\\mdstor\ua25450\oneqbit\solution-entropy\benchmarks\isopentane\calc.chk
# hf/3-21g geom=connectivity

Title Card Required

0 1
 C                 -2.87253139   -0.20646319    0.00000000
 H                 -2.51587697   -1.21527320    0.00000000
 H                 -2.51585855    0.29793500   -0.87365150
 H                 -3.94253139   -0.20645001    0.00000000
 C                 -2.35918917    0.51949308    1.25740497
 H                 -2.71584381    1.52830301    1.25740510
 C                 -2.87253118   -0.20646387    2.51480964
 H                 -3.94253116   -0.20628166    2.51490707
 H                 -2.51603636   -1.21533027    2.51471193
 C                 -2.35895898    0.51933053    3.77221414
 H                 -2.71566769    0.01495769    4.64586564
 H                 -1.28895901    0.51910989    3.77213824
 C                 -0.81918917    0.51947391    1.25740460
 H                 -0.46251230    1.35347796    1.82495976
 H                 -0.46253403   -0.38905215    1.69589919
 H                 -0.46252163    0.59398261    0.25135454
 H                 -2.71541762    1.52820973    3.77228972

 1 2 1.0 3 1.0 4 1.0 5 1.0
 2
 3
 4
 5 6 1.0 7 1.0 13 1.0
 6
 7 8 1.0 9 1.0 10 1.0
 8
 9
 10 11 1.0 12 1.0 17 1.0
 11
 12
 13 14 1.0 15 1.0 16 1.0
 14
 15
 16
 17

