    13
        -19.94512172
C          -0.00827074147105   -0.07343650611076   -0.00129533886302
C           1.37487856186973   -0.07753554580983   -0.01560412828084
C           2.06988972215670    1.12508625694120   -0.02306250023293
C           1.37446117129863    2.32744522322422   -0.01661586496367
C          -0.00869026427374    2.32289383445842   -0.00222362498401
C          -0.70212495964017    1.12461110971343    0.00323568653180
H          -0.54562773923663   -1.01040180382861    0.00681185530082
H           1.92753208870114   -1.00527230632229   -0.01313147166260
H           1.92687758956567    3.25530525591095   -0.01535136136029
H          -0.54637351554611    3.25967245144383    0.00452066933874
H          -1.78188790648074    1.12442694460995    0.01372668606311
O           3.45230913814252    1.12564926491867    0.02011441568272
H           3.81513308491404    1.11953742085081   -0.87077135256983
