     5
        -16.28308713
C          -2.87780049073831   -0.21386161240293   -0.01228733895913
CL         -4.64662192413366   -0.20233632204254    0.00696204838840
CL         -2.27731465243491    0.63547876425581   -1.44394170844499
CL         -2.27733146475161   -1.87772150999307    0.00717698673946
H          -2.51359238794150    0.30085836018274    0.87870741227627
