    15
        -17.72048511
C          -0.19327775535411   -1.18972978907125    0.95055217545174
H           0.16269043854017   -0.68554258909841    0.03654386058517
H          -1.29563293001218   -1.19896140371518    0.91913310463771
O           0.24798161311735   -0.48715981131957    2.08776316869586
C          -0.19520403652502    0.84822765019704    2.12961505221734
H          -1.29767313690671    0.87823071630268    2.12744517727096
H           0.15533190445881    1.38822748690462    1.23416293203254
C           0.34542188217151   -2.60964596584807    1.01481111589327
H          -0.01102405330618   -3.09794475135945    1.91735010626656
H           0.01476052871027   -3.17294251031374    0.14666595560482
H           1.43130007944574   -2.59082940488480    1.03893577446156
C           0.34889566937688    1.50366526388265    3.38853317452202
H           1.43474873226105    1.47336128846355    3.37945404953373
H           0.01848656168350    2.53721107880901    3.44276326999778
H          -0.00362287766112    0.96705005105091    4.26479326282893
