%chk=\\mdstor\ua25450\oneqbit\solution-entropy\benchmarks\ethyl-ether\calc.chk
# hf/3-21g geom=connectivity

Title Card Required

0 1
 C                 -0.18166283   -1.19139403    0.97230758
 H                  0.17501001   -0.68699584    0.09865608
 H                 -1.25166283   -1.19138085    0.97230758
 O                  0.29501209   -0.51729178    2.13989791
 C                 -0.17918092    0.83179701    2.13922453
 H                 -1.24917826    0.83375886    2.13787283
 H                  0.17951326    1.33549689    1.26599780
 C                  0.33165289   -2.64332618    0.97230758
 H                 -0.02493309   -3.14769367    1.84601226
 H                 -0.02510679   -3.14775507    0.09870926
 H                  1.40165289   -2.64333936    0.97220121
 C                  0.33389469    1.55688642    3.39723834
 H                  1.40389216    1.55497098    3.39856220
 H                 -0.02096572    2.56632877    3.39676175
 H                 -0.02475493    1.05315516    4.27046527

 1 2 1.0 3 1.0 4 1.0 8 1.0
 2
 3
 4 5 1.0
 5 6 1.0 7 1.0 12 1.0
 6
 7
 8 9 1.0 10 1.0 11 1.0
 9
 10
 11
 12 13 1.0 14 1.0 15 1.0
 13
 14
 15

