%chk=\\mdstor\ua25450\oneqbit\solution-entropy\benchmarks\n-octane\calc.chk
# hf/3-21g geom=connectivity

Title Card Required

0 1
 C                 -2.87253139   -0.20646319    0.00000000
 H                 -2.51587697   -1.21527320    0.00000000
 H                 -2.51585855    0.29793500   -0.87365150
 H                 -3.94253139   -0.20645001    0.00000000
 C                 -2.35918917    0.51949308    1.25740497
 H                 -2.71584352    1.52830311    1.25740527
 C                 -2.87253118   -0.20646387    2.51480964
 H                 -3.94253116   -0.20628166    2.51490707
 H                 -2.51603636   -1.21533027    2.51471193
 C                 -2.35895898    0.51933053    3.77221414
 H                 -1.28895901    0.51910989    3.77213824
 H                 -2.71541762    1.52820973    3.77228972
 H                 -1.28918917    0.51948006    1.25740488
 C                 -2.87235282   -0.20658926    5.02961910
 H                 -2.51589412   -1.21546843    5.02954317
 H                 -3.94235280   -0.20636873    5.02969516
 C                 -2.35878056    0.51920559    6.28702332
 H                 -2.71704949    0.01593829    7.16067394
 H                 -1.28878257    0.51732931    6.28790408
 C                 -2.86956617    1.97202921    6.28575567
 H                 -2.21510404    2.57967965    5.69639988
 H                 -3.85531662    2.00316426    5.87075368
 C                 -2.90354414    2.50547867    7.73001228
 H                 -1.93278210    2.40768640    8.16928182
 H                 -3.18952876    3.53652683    7.72276767
 H                 -3.61192965    1.94286605    8.30146396

 1 2 1.0 3 1.0 4 1.0 5 1.0
 2
 3
 4
 5 6 1.0 7 1.0 13 1.0
 6
 7 8 1.0 9 1.0 10 1.0
 8
 9
 10 11 1.0 12 1.0 14 1.0
 11
 12
 13
 14 15 1.0 16 1.0 17 1.0
 15
 16
 17 18 1.0 19 1.0 20 1.0
 18
 19
 20 21 1.0 22 1.0 23 1.0
 21
 22
 23 24 1.0 25 1.0 26 1.0
 24
 25
 26

