    10
        -13.53357451
C          -0.75938523219308   -0.82198419237751    0.52316718554768
H          -0.39477564695091   -1.84399125708323    0.51833364947911
H          -0.41769494752456   -0.31485352222851    1.42356728910387
H          -1.84751356020693   -0.82079843316573    0.54850001164491
C          -0.29397214570269   -0.04534478836211   -0.68654458918801
O          -0.59226742556411    1.10744271095656   -0.86501322151629
C           0.56912161290400   -0.82454674411502   -1.64534629212961
H           1.45699519826728   -1.18076287944001   -1.12670287802346
H           0.01881261635829   -1.69095892024642   -2.00675667884159
H           0.86268156061272   -0.20172828393801   -2.48605837607663
