    15
        -19.05039926
C           2.46408441418291    0.56100775238627    0.03356844949856
C           3.84759429997931    0.55933341417504    0.02386958030001
C           4.54386395016712    1.75569145563587    0.01841962779678
C           3.84747206869780    2.95205592691401    0.02223081892618
C           2.46404101447170    2.95024629455782    0.03199938125699
C           1.75489718350827    1.75555989305723    0.03837442741017
H           1.92610497953731   -0.37675522081541    0.03894143423921
H           4.38399540657497   -0.37866717244290    0.02206567442599
H           5.62399176893000    1.75575011460763    0.01275609034309
H           4.38383283833976    3.89007681268301    0.01931756118547
H           1.92582925292606    3.88788318245376    0.03617229764590
C           0.25594858580057    1.75599831677686    0.02664183109500
H          -0.13621438360978    2.63645231613457    0.53082188193452
H          -0.10816785172706    1.76682676166424   -1.00151037117451
H          -0.13681664777894    0.86578427221200    0.51277522511663
