    21
        -24.04932178
C          -6.17542968629368    1.11010302423451   -0.01087246698192
H          -5.82406663219752    0.08088907410500   -0.03538889922545
H          -5.81556308011894    1.61706662834297   -0.90322424949077
H          -7.26289485117369    1.10015621801756   -0.03656911246748
C          -5.67733829006336    1.81469672283006    1.24499286365366
H          -6.02298930082001    2.85105271629806    1.24066468578690
H          -4.58497970657646    1.83125703474604    1.24246991147230
C          -6.16744556781767    1.12587532609678    2.51661784949307
H          -5.82219089573570    0.08959243890787    2.52126282755370
H          -7.25961373725113    1.10958998102976    2.51975284740793
C          -5.67016075974736    1.82854381658381    3.77748281679658
H          -6.01490674739466    2.86560280215198    3.77274606224326
H          -4.57742110219246    1.84514226726994    3.77448701644920
C          -6.16185961577959    1.13807531822642    5.04539153574142
H          -5.81652705604778    0.10333804133029    5.06838164195615
H          -7.25263017152882    1.12295669194007    5.06672113387083
C          -5.66618518283910    1.83825849687219    6.30603058344756
H          -6.01820537315212    2.88077421650395    6.31456636469389
H          -4.56591450258295    1.84963389026125    6.31625820663907
O          -6.16223020778042    1.14144008265089    7.42928992670657
H          -5.85538449290658    1.57496165160064    8.23180866425352
