    15
        -17.72282228
O           0.25683218337939   -0.52471707177142    2.10672530067496
C          -0.15298543145282    0.82185799657645    2.13736430124471
H          -1.24503519611741    0.79235204291384    2.12163216150724
H           0.18984354498665    1.34802125465474    1.23325943883740
C           0.33676067581997    1.56448903621754    3.38101541233612
H           1.43115188380302    1.55958448261182    3.39393402931642
H          -0.00945855493861    1.03064857939574    4.26858544702533
H           1.21848102751709   -0.55635780297371    2.16401817092436
C          -0.16414928265507    3.00557552779090    3.41673327478213
H          -1.25595815737090    3.00665461563807    3.40232679725654
H           0.17879430546956    3.52834968669895    2.52078130167938
C           0.32842697664729    3.74391658266762    4.65552233146020
H          -0.03861186469035    4.76738121801780    4.66097956423668
H          -0.02145704980666    3.24864584709565    5.55838434097715
H           1.41572622940884    3.76931652446600    4.67864224774137
