%chk=\\mdstor\ua25450\oneqbit\solution-entropy\benchmarks\pentanol-benzene\pentanol.chk
# hf/3-21g geom=connectivity

Title Card Required

0 1
 C                 -2.48765462   -0.32528741   -0.07367632
 H                 -2.13100020   -1.33409742   -0.07367632
 H                 -2.13098178    0.17911078   -0.94732782
 H                 -3.55765462   -0.32527423   -0.07367632
 C                 -1.97431240    0.40066886    1.18372865
 H                 -0.90431240    0.40065554    1.18372839
 H                 -2.33098510   -0.10372980    2.05737995
 C                 -2.48762842    1.85260091    1.18372884
 H                 -3.55762664    1.85261396    1.18177271
 H                 -2.12935965    2.35756431    0.31105740
 C                 -1.97658594    2.57774381    2.44253913
 H                 -0.90658823    2.57734220    2.44471826
 H                 -2.33522002    2.07303907    3.31521016
 C                 -2.48937545    4.02986185    2.44221880
 H                 -3.55937311    4.03026257    2.44001928
 H                 -2.13072516    4.53457256    1.56955788
 O                 -2.01485771    4.70320117    3.61112730
 H                 -2.33425305    5.60851138    3.61132223

 1 2 1.0 3 1.0 4 1.0 5 1.0
 2
 3
 4
 5 6 1.0 7 1.0 8 1.0
 6
 7
 8 9 1.0 10 1.0 11 1.0
 9
 10
 11 12 1.0 13 1.0 14 1.0
 12
 13
 14 15 1.0 16 1.0 17 1.0
 15
 16
 17 18 1.0
 18

