    12
        -14.55881430
C          -3.14649019408344   -0.22394134610480   -0.00281381037144
H          -2.79717204438977   -1.25253835747582   -0.02143736283815
H          -2.78404895521624    0.28981484449987   -0.89006734553352
H          -4.23286576976056   -0.21356802442861   -0.01903954583111
C          -2.64923874765477    0.48374395670497    1.25756552391280
H          -1.55044815642187    0.47749486754288    1.25864386509346
C          -3.14847952935019   -0.22279393548379    2.51779800555607
H          -2.79957629152105   -1.25152339889414    2.53771924513879
H          -2.78721567925398    0.29156937257262    3.40513943495500
H          -4.23486434868226   -0.21201787782010    2.53225339882353
O          -3.12700401665438    1.82544196209461    1.25662868721750
H          -2.39122059701150    2.44057772679230    1.25687372387707
