%chk=\\mdstor\ua25450\oneqbit\solution-entropy\benchmarks\isopropanol-water\calc.chk
# hf/3-21g geom=connectivity

Title Card Required

0 1
 C                 -3.15384613   -0.23076923    0.00000000
 H                 -2.79719170   -1.23957923    0.00000000
 H                 -2.79717329    0.27362896   -0.87365150
 H                 -4.22384613   -0.23075604    0.00000000
 C                 -2.64050391    0.49518705    1.25740497
 H                 -1.57050572    0.49347998    1.25838332
 C                 -3.15614335   -0.22914260    2.51480806
 H                 -2.80139490   -1.23862411    2.51559626
 H                 -2.79916288    0.27503779    3.38845964
 H                 -4.22614113   -0.22710926    2.51401810
 O                 -3.11501875    1.84416220    1.25609874
 H                 -2.36769644    2.44674428    1.25814623

 1 2 1.0 3 1.0 4 1.0 5 1.0
 2
 3
 4
 5 6 1.0 7 1.0 11 1.0
 6
 7 8 1.0 9 1.0 10 1.0
 8
 9
 10
 11 12 1.0
 12

