     5
        -16.28308718
C          -2.87773517004905   -0.21377824970683   -0.01231995194548
CL         -4.64664370411023   -0.20236593388729    0.00708367900652
CL         -2.27721398936059    0.63542931477201   -1.44397619227067
CL         -2.27733225822774   -1.87775692627426    0.00710665893144
H          -2.51373579825238    0.30088947509638    0.87872320627820
