%chk=\\mdstor\ua25450\oneqbit\solution-entropy\benchmarks\cyclopentane-water\calc.chk
# hf/3-21g geom=connectivity

Title Card Required

0 1
 C                  1.54398562   -0.58348294    0.00000000
 C                  3.06584362   -0.58348294    0.00000000
 C                  3.53461662    0.86438206    0.00000000
 C                  2.30687662    1.75395006   -0.13318600
 C                  1.07477962    0.86083706   -0.10359000
 H                  1.15202362   -1.18592794   -0.85750800
 H                  1.15387062   -1.05389394    0.93750400
 H                  3.45447062   -1.11808094   -0.90328000
 H                  3.45921062   -1.12421494    0.89683700
 H                  4.08155162    1.09607506    0.94858800
 H                  4.24657762    1.04755806   -0.84321600
 H                  2.27119962    2.50002006    0.69979800
 H                  2.34599762    2.33153506   -1.09092200
 H                  0.42240162    1.12263906    0.76707400
 H                  0.46303362    1.00845906   -1.02879300

 1 2 1.0 5 1.0 6 1.0 7 1.0
 2 3 1.0 8 1.0 9 1.0
 3 4 1.0 10 1.0 11 1.0
 4 5 1.0 12 1.0 13 1.0
 5 14 1.0 15 1.0
 6
 7
 8
 9
 10
 11
 12
 13
 14
 15

