%chk=gau.chk
%nprocshared=2
%mem=4GB
# opt freq wb97xd/6-31g(d) 5d
scf=(maxconventionalcycles=100,xqc)

comment

0 1
O           0.27763642573221   -0.51289753893963    2.13992410550247
H           1.24037129018530   -0.52934418952400    2.13818275206150
C          -0.15825710593786    0.82416944798416    2.13919490037402
H          -1.24628658730211    0.79510208578733    2.14121679362598
H           0.18413876914297    1.36265269726756    3.02968910261294
H           0.18087892817951    1.36061732742458    1.24622822582308


