    18
        -18.98671417
C          -7.97607632986031   -1.88818301419606   -0.01195993096208
C          -6.45035086219006   -1.90022416217725    0.00902957683356
C          -5.90519113622309   -0.47515535819026   -0.01091888813205
C          -6.44888812597276    0.32050455980768    1.17215818168338
C          -7.97455787428864    0.33286342144390    1.15046323852483
C          -8.51961249087447   -1.09219602588020    1.17098147721627
H          -4.81353071729034   -0.49335651200288    0.02238827620648
H          -6.10540242095712   -2.40642875919002    0.91388478870183
H          -6.07034573468663   -2.45651995900403   -0.85080864698949
H          -8.32103384463354   -1.43240927880861   -0.94323741612775
H          -8.35720665283403   -2.91134101610826    0.02078180369343
H          -6.10446208284964   -0.13582875866425    2.10334384095739
H          -6.06741200323842    1.34352152426803    1.14003218144492
H          -8.35500830459780    0.88977976184835    2.00966526854552
H          -8.31894563513917    0.83842161934330    0.24504718371106
H          -8.22125184010746   -1.57978615474280    2.10223122389424
H          -9.61126882462033   -1.07416305232335    1.13784765178613
H          -6.20332791963620    0.01274120457671   -0.94208181098768
