%chk=\\mdstor\ua25450\oneqbit\solution-entropy\benchmarks\butanol\calc.chk
# hf/3-21g geom=connectivity

Title Card Required

0 1
 O                  0.29501209   -0.51729178    2.13989791
 C                 -0.17918092    0.83179701    2.13922453
 H                 -1.24917826    0.83375886    2.13787283
 H                  0.17951326    1.33549689    1.26599780
 C                  0.33389469    1.55688642    3.39723834
 H                  1.40389216    1.55497098    3.39856220
 H                 -0.02475493    1.05315516    4.27046527
 H                  1.25501048   -0.51905258    2.13989879
 C                 -0.17683899    3.00972868    3.39655241
 H                 -1.24683441    3.01164340    3.39407770
 H                  0.18274945    3.51379049    2.52390251
 C                  0.33488251    3.73434245    4.65539156
 H                 -0.02130032    4.74331900    4.65572066
 H                 -0.02338660    3.22934519    5.52804327
 H                  1.40488108    3.73382835    4.65705834

 1 2 1.0 8 1.0
 2 3 1.0 4 1.0 5 1.0
 3
 4
 5 6 1.0 7 1.0 9 1.0
 6
 7
 8
 9 10 1.0 11 1.0 12 1.0
 10
 11
 12 13 1.0 14 1.0 15 1.0
 13
 14
 15

