%chk=\\mdstor\ua25450\oneqbit\solution-entropy\benchmarks\acetone\calc.chk
# hf/3-21g geom=connectivity

Title Card Required

0 1
 C                 -0.79758187   -0.81680611    0.58223789
 H                 -0.44092744   -1.82561611    0.58223789
 H                 -0.44090903   -0.31240792    1.45588939
 H                 -1.86758187   -0.81679293    0.58223789
 C                 -0.28423965   -0.09084984   -0.67516708
 O                 -0.58561312    1.11388277   -0.87854833
 C                  0.60095445   -0.84179411   -1.68715231
 H                  1.49289618   -1.17744248   -1.20065449
 H                  0.06604005   -1.68462332   -2.07238667
 H                  0.85896433   -0.18507626   -2.49154808

 1 2 1.0 3 1.0 4 1.0 5 1.0
 2
 3
 4
 5 6 2.0 7 1.0
 6
 7 8 1.0 9 1.0 10 1.0
 8
 9
 10

