%chk=\\mdstor\ua25450\oneqbit\solution-entropy\benchmarks\butanone-hexane\calc.chk
# hf/3-21g geom=connectivity

Title Card Required

0 1
 C                  2.08113357    0.97934067   -0.52989639
 H                  2.43778800   -0.02946934   -0.52989639
 H                  2.43780641    1.48373886    0.34375512
 H                  1.01113357    0.97935385   -0.52989639
 C                  2.08343379    0.97771633   -3.04470444
 H                  1.01343597    0.97570909   -3.04549331
 H                  2.44199175   -0.03041836   -3.04391383
 C                  2.59633353    1.70398512   -4.30210951
 H                  3.66633119    1.70606403   -4.30127829
 H                  2.24132653    1.19841069   -5.17575964
 H                  2.23770809    2.71209578   -4.30294182
 C                  2.59447579    1.70529694   -1.78730135
 O                  3.30149234    2.70850909   -1.78726223

 1 2 1.0 3 1.0 4 1.0 12 1.0
 2
 3
 4
 5 6 1.0 7 1.0 8 1.0 12 1.0
 6
 7
 8 9 1.0 10 1.0 11 1.0
 9
 10
 11
 12 13 2.0
 13

