    13
        -16.69738357
C           2.08957489200496    0.99125590535965   -0.51984755949860
H           2.43945704880473   -0.03827326086144   -0.49380946069996
H           2.46520088465925    1.52288476287749    0.35020821353921
H           1.00226691678026    0.97831312621258   -0.49426813415224
C           2.09624380138349    0.99578888494702   -3.06177557097498
H           1.00375360915383    0.97196085350349   -3.05035839086428
H           2.44198218528431   -0.04080873288386   -3.04889372345985
C           2.59940441173229    1.70843596823722   -4.30968203249271
H           3.68617684224280    1.72479521697248   -4.31951768227883
H           2.24616274057790    1.20537294559956   -5.20638701672738
H           2.24851414075284    2.73711660640022   -4.32110270552415
C           2.56623649584789    1.66497977900100   -1.78556030850036
O           3.25941656077544    2.64851069463458   -1.77570409836587
