     6
         -8.68849784
C          -0.78399679405228   -0.79759456841842    0.54861482919471
H          -0.42137170120548   -1.82483813448548    0.54989632599227
H          -0.42100811440256   -0.28426440130636    1.43829248922920
H          -1.87336635975371   -0.79809600954697    0.54989623312384
C          -0.30531201879704   -0.12064988259833   -0.62473549603063
N           0.07624883821106    0.41894444635557   -1.55683169150940
