%chk=\\mdstor\ua25450\oneqbit\solution-entropy\benchmarks\n-pentane\calc.chk
# hf/3-21g geom=connectivity

Title Card Required

0 1
 C                 -2.87253139   -0.20646319    0.00000000
 H                 -2.51587697   -1.21527320    0.00000000
 H                 -2.51585855    0.29793500   -0.87365150
 H                 -3.94253139   -0.20645001    0.00000000
 C                 -2.35918917    0.51949308    1.25740497
 H                 -1.28918917    0.51947976    1.25740471
 H                 -2.71584381    1.52830301    1.25740510
 C                 -2.87253118   -0.20646387    2.51480964
 H                 -3.94253116   -0.20628166    2.51490707
 H                 -2.51603636   -1.21533027    2.51471193
 C                 -2.35895898    0.51933053    3.77221414
 H                 -2.71566775    0.01495739    4.64586544
 H                 -1.28895900    0.51910997    3.77213842
 C                 -2.87199295    1.97136225    3.77232241
 H                 -2.22702044    2.57766945    3.17123835
 H                 -3.86369544    1.99953010    3.37153224
 H                 -2.88160262    2.34580788    4.77461883

 1 2 1.0 3 1.0 4 1.0 5 1.0
 2
 3
 4
 5 6 1.0 7 1.0 8 1.0
 6
 7
 8 9 1.0 10 1.0 11 1.0
 9
 10
 11 12 1.0 13 1.0 14 1.0
 12
 13
 14 15 1.0 16 1.0 17 1.0
 15
 16
 17

