    15
        -17.72058133
C          -3.63617788404599    0.23590812369175    0.00993693345503
H          -3.28856467908824   -0.79809670295382    0.03386907009731
H          -4.72691336318767    0.21824713548654    0.03355920175710
C          -3.13917063505221    0.93965342450020    1.26770607085532
H          -2.03886757847300    0.95355823071533    1.27568991763937
H          -3.49308313484667    1.98157826816056    1.27516434890532
O          -3.63120128527393    0.24420684409525    2.39389182864699
H          -3.32295309967597    0.68052307407739    3.19435378168351
C          -3.15030797098880    0.92310627177726   -1.26204045514742
H          -2.05789156554207    0.94261141260718   -1.26812995254330
H          -3.49877125557402    1.95862664999869   -1.26961809321009
C          -3.65171379207334    0.21016342778264   -2.51157615846270
H          -4.73894760293419    0.19749974289319   -2.53242087214652
H          -3.29646168288247    0.71323883008899   -3.40791526424398
H          -3.29789455036144   -0.81799329292116   -2.53124660728596
