%chk=calc.chk 
%nprocshared=10 
%mem=16GB 
# opt=loose freq wb97xd/6-31g(d) 5d scf=(maxconventionalcycles=100,xqc) units=au 

comment

0 1
C -7.0772381973 2.4050830895 -1.0178139969
H -8.9420160265 3.2758244362 -0.8883191755
H -5.9781922950 3.4222488398 -2.4370349699
C -5.7961958370 2.7158160997 1.5472270131
H -3.9666378497 1.7345458420 1.5630291184
H -5.4456200864 4.7350381476 1.8994016629
O -7.4031594453 1.7175104665 3.4320461700
H -6.6124231673 1.9164981648 5.0567032048
C -7.3809517123 -0.3618425029 -1.7940185840
H -8.7365436156 -0.4652509620 -3.3466908021
H -8.1657505471 -1.4024655548 -0.1975511948
C -4.9096724995 -1.5766863893 -2.6385702910
H -3.5318291846 -1.5992965153 -1.1151867216
H -5.2371563688 -3.5178703687 -3.2293226725
H -4.1046653986 -0.5443201791 -4.2252139180

