%chk=calc.chk 
%nprocshared=10 
%mem=16GB 
# opt=loose freq wb97xd/6-31g(d) 5d scf=(maxconventionalcycles=100,xqc) units=au 

comment

0 1
C -5.5059710523 -0.8209898650 -0.0081447471
H -3.7800976705 -1.9485645789 0.0908717291
H -7.1221573935 -2.0979080941 0.0688204247
C -5.5824015931 0.8669528368 2.3335284905
H -4.9697188159 -0.2409342759 3.9844200740
H -4.2590590099 2.4535100183 2.0957856035
O -8.0612987366 1.7752410208 2.7301866388
H -8.0884115390 2.7958860987 4.2350312456
C -5.5390477880 0.6341253519 -2.5045862181
H -5.0286793280 -0.6650285487 -4.0269032698
H -4.0996308578 2.1136916073 -2.4417261438
C -8.1046115709 1.8038898946 -3.0843279422
H -8.0151306790 2.9130312520 -4.8134635958
H -9.5200834970 0.3331191495 -3.3246417462
H -8.7031930654 3.0179340697 -1.5430992041

