%chk=calc.chk 
%nprocshared=10 
%mem=16GB 
# opt=loose freq wb97xd/6-31g(d) 5d scf=(maxconventionalcycles=100,xqc) units=au 

comment

0 1
C -5.1903923826 1.2844738511 0.8670230271
H -5.1279141068 1.5853106776 2.9095453308
H -3.2424584939 1.0825115144 0.2246355974
C -6.6613761982 -1.1784629363 0.3757578520
H -8.2168857928 -0.8275734514 -0.9553145767
H -5.4349576687 -2.6218750391 -0.4410336221
O -7.6188444769 -2.2805724136 2.6049183004
H -8.7433479829 -1.0934746609 3.4065789899
C -6.3606646498 3.6008994702 -0.4045761482
H -5.4693209445 5.2992848447 0.3585342981
H -8.3739334296 3.6990642816 0.0472255054
C -6.0143754469 3.5721813949 -3.2639733571
H -6.8807490743 1.9048081264 -4.0950282429
H -6.8731392728 5.2368200877 -4.1085051709
H -4.0154731944 3.5618864267 -3.7407200351

