%chk=calc.chk 
%nprocshared=10 
%mem=16GB 
# opt=loose freq wb97xd/6-31g(d) 5d scf=(maxconventionalcycles=100,xqc) units=au 

comment

0 1
C -7.5968070693 -0.4469678006 0.3047648057
H -7.2628960380 -2.1825636988 1.3707488965
H -9.4767641493 -0.5633205415 -0.5360146446
C -7.5757347941 1.7669899945 2.1691385992
H -7.8714992794 3.5578883339 1.1596652254
H -9.1165590852 1.5359173033 3.5245198242
O -5.3638732646 1.8884177903 3.6423052039
H -3.9345767312 2.0324030951 2.5232452178
C -5.6216027294 -0.2458135541 -1.7999328009
H -5.6303625440 -2.0189037544 -2.8572445033
H -3.7354633115 -0.0444160602 -0.9794215204
C -6.1159008804 1.9258466317 -3.6283554069
H -4.7474336038 1.8883928363 -5.1616700110
H -7.9989758833 1.7653264426 -4.4370758222
H -5.9688167165 3.7475953249 -2.6898088752

