%chk=calc.chk 
%nprocshared=10 
%mem=16GB 
# opt=loose freq wb97xd/6-31g(d) 5d scf=(maxconventionalcycles=100,xqc) units=au 

comment

0 1
C -6.6504550978 -0.3009720906 0.1143101556
H -5.7483502721 -2.0095373796 0.8541936593
H -8.6817750671 -0.6522727548 0.0256146582
C -6.1583002029 1.8616740551 1.9682434973
H -4.1239493210 2.2943748190 2.0116954465
H -7.1750602405 3.5620833368 1.3964239034
O -7.0420921415 1.3213942322 4.4214703171
H -6.2638069765 -0.2217855026 4.9986689248
C -5.6287503732 0.2202764864 -2.5362166923
H -5.7383097594 -1.5263240836 -3.6321065227
H -3.6374730558 0.7497311292 -2.4035944762
C -7.0799962476 2.2818641366 -3.9273770023
H -6.9085535556 4.0863598413 -2.9638946802
H -6.3450351075 2.5022037146 -5.8345573537
H -9.0729274235 1.7963731552 -4.0543977358

