%chk=\\mdstor\ua25450\oneqbit\solution-entropy\benchmarks\ethyl-acetate\calc.chk
# hf/3-21g geom=connectivity

Title Card Required

0 1
 C                 -3.39811994   -1.22490846    6.15565955
 O                 -2.16785094   -1.22490846    6.15565955
 O                 -4.02747794   -0.02269446    6.15565955
 C                 -4.38952054   -2.40335016    6.15572656
 H                 -5.00505849   -2.35155544    7.02941434
 H                 -5.00516246   -2.35156732    5.28211134
 H                 -3.84717063   -3.32571483    6.15570056
 C                 -3.07507981    1.04400034    6.15560654
 H                 -2.46126339    0.97414117    7.02924783
 H                 -2.46129823    0.97408612    5.28194518
 C                 -3.81624396    2.39391726    6.15557828
 H                 -3.10361041    3.19207351    6.15576580
 H                 -4.42988802    2.46387009    5.28182341
 H                 -4.43019795    2.46373708    7.02912604

 1 2 2.0 3 1.0 4 1.0
 2
 3 8 1.0
 4 5 1.0 6 1.0 7 1.0
 5
 6
 7
 8 9 1.0 10 1.0 11 1.0
 9
 10
 11 12 1.0 13 1.0 14 1.0
 12
 13
 14

