    21
        -24.04932145
C          -6.17521210350545    1.11041372743189   -0.01100079150078
H          -5.82376310113873    0.08131406738779   -0.03595640807133
H          -5.81508185080564    1.61786812496327   -0.90291405190898
H          -7.26259798373500    1.10046856076311   -0.03706900949679
C          -5.67748040029513    1.81449992284353    1.24524374738906
H          -6.02304903683963    2.85083856594616    1.24121459319268
H          -4.58516575939775    1.83112631068099    1.24302095076201
C          -6.16777946012594    1.12541083734596    2.51666832361254
H          -5.82260676841697    0.08915174364377    2.52124766335077
H          -7.25989946055584    1.10908871702763    2.51974803606416
C          -5.67042580542230    1.82814238879545    3.77744332411149
H          -6.01508327415883    2.86518652806889    3.77255702595557
H          -4.57772878574426    1.84479846755116    3.77428815625020
C          -6.16192937090100    1.13795195380066    5.04549072148691
H          -5.81666679715120    0.10325181896955    5.06872767483072
H          -7.25264356856934    1.12279323272867    5.06705527537732
C          -5.66607136435023    1.83841883211187    6.30593893307714
H          -6.01786030316452    2.88100368420040    6.31416596838260
H          -4.56581074445901    1.85000441250661    6.31588782956757
O          -6.16197612770086    1.14186766288208    7.42929753204407
H          -5.85510489356238    1.57540688035058    8.23181471552306
