    15
        -17.72478594
O           0.15462069632095   -0.54686827849097    2.12619476696068
C          -0.14424938325054    0.82811556221062    2.13356562985479
H          -1.23502234560832    0.88342400682029    2.09873238847777
H           0.25417318121710    1.31305662103500    1.22936743907057
C           0.37227830245826    1.56512241935440    3.37767707820510
H           0.01539999521316    1.02178394211345    4.25941155695454
H           1.11193831279698   -0.65152218972321    2.15365878549776
C          -0.18824622067610    2.98393730898760    3.40572000015254
H          -1.27543258822798    2.96902489878504    3.41162446768179
H           0.14285032385437    3.53900809595102    2.53027349406957
C           1.89999460175466    1.59639266096599    3.40496255198911
H           2.31690879403148    0.59281554495613    3.47168816885657
H           2.28701640813324    2.07689996819924    2.50755395142113
H           2.24823981126870    2.15709449799793    4.26936005762450
H           0.15319134071403    3.50942505083748    4.29443692318359
