%chk=\\mdstor\ua25450\oneqbit\solution-entropy\benchmarks\m-xylene\calc.chk
# hf/3-21g geom=connectivity

Title Card Required

0 1
 C                 -1.14901256   -0.36804308    0.00000000
 C                  0.24614744   -0.36804308    0.00000000
 C                  0.94368544    0.83970792    0.00000000
 C                  0.24603144    2.04821692   -0.00119900
 C                 -1.14879356    2.04813892   -0.00167800
 C                 -1.84639456    0.83993292   -0.00068200
 H                 -1.69877156   -1.32036008    0.00045000
 H                  0.79565544   -1.32055608    0.00131500
 H                  0.79623144    3.00035992   -0.00125800
 H                 -2.94599856    0.84011592   -0.00086200
 C                 -1.91913174    3.38162207   -0.00301249
 H                 -2.84585730    3.25764582   -0.52331012
 H                 -2.11364491    3.68216645    1.00532163
 H                 -1.33312773    4.13156458   -0.49197621
 C                  2.48368518    0.83981995    0.00088786
 H                  2.84082831    1.31929289   -0.88649846
 H                  2.83981774    1.36879947    0.86010277
 H                  2.84040886   -0.16855471    0.02967615

 1 2 1.5 6 1.5 7 1.0
 2 3 1.5 8 1.0
 3 4 1.5 15 1.0
 4 5 1.5 9 1.0
 5 6 1.5 11 1.0
 6 10 1.0
 7
 8
 9
 10
 11 12 1.0 13 1.0 14 1.0
 12
 13
 14
 15 16 1.0 17 1.0 18 1.0
 16
 17
 18

