    17
        -16.82855583
C          -2.80029586166085   -0.27753324026174   -0.04485438350007
H          -2.44143337904300   -1.30373260847133    0.00211438083099
H          -2.40625520357411    0.18220829762367   -0.94860704014978
H          -3.88567564412359   -0.29906115428282   -0.11652600507854
C          -2.36163491492841    0.50100822327200    1.18946741581224
H          -1.27019737156576    0.51660422333562    1.23897584848131
H          -2.70621014954699    1.53252617878218    1.10020999695064
C          -2.91396358101767   -0.11878985025183    2.47140576250604
H          -4.00534467232492   -0.06552827207736    2.45643407447014
H          -2.63681245203953   -1.17599303893668    2.49517972766955
C          -2.39431059567622    0.55010653521078    3.74425994027338
H          -2.72305741367965   -0.03784034799888    4.60495194912133
H          -1.30175034503105    0.53891285731972    3.73617045500554
C          -2.88351306813419    1.98376789068870    3.91372399602763
H          -2.49044276662828    2.62612681593190    3.12983210014516
H          -3.97053881076174    2.02144262945727    3.87775753715497
H          -2.55858010026397    2.38249108065884    4.87242599427941
