%chk=\\mdstor\ua25450\oneqbit\solution-entropy\benchmarks\hexanol-chloroform\calc.chk
# hf/3-21g geom=connectivity

Title Card Required

0 1
 C                 -6.17605254    1.10914445    0.00000000
 H                 -5.81939811    0.10033445    0.00000000
 H                 -5.81937970    1.61354264   -0.87365150
 H                 -7.24605254    1.10915763    0.00000000
 C                 -5.66271032    1.83510072    1.25740497
 H                 -6.01776667    2.84447381    1.25642745
 H                 -4.59271213    1.83339404    1.25838372
 C                 -6.17834997    1.11077045    2.51480761
 H                 -5.82360102    0.10128912    2.51559568
 H                 -7.24834775    1.11280325    2.51401717
 C                 -5.66456594    1.83641316    3.77221313
 H                 -6.01924759    2.84591810    3.77138289
 H                 -4.59456833    1.83430908    3.77304506
 C                 -6.18030221    1.11215149    5.02961567
 H                 -5.82562827    0.10264383    5.03044013
 H                 -7.25029980    1.11426375    5.02878874
 C                 -5.66650708    1.83778632    6.28702119
 H                 -6.02117959    2.84729448    6.28619481
 H                 -4.59650949    1.83567254    6.28784928
 O                 -6.14540695    1.16525898    7.45460926
 H                 -5.82535096    1.61728415    8.23872495

 1 2 1.0 3 1.0 4 1.0 5 1.0
 2
 3
 4
 5 6 1.0 7 1.0 8 1.0
 6
 7
 8 9 1.0 10 1.0 11 1.0
 9
 10
 11 12 1.0 13 1.0 14 1.0
 12
 13
 14 15 1.0 16 1.0 17 1.0
 15
 16
 17 18 1.0 19 1.0 20 1.0
 18
 19
 20 21 1.0
 21

